./mols_with_subunit_all/1-R0B2G12_18-R4B3G1_0_19.xyz
 OpenBabel05102419073D

 63 69  0  0  1  0  0  0  0  0999 V2000
   -0.4827    1.1713   -0.6771 C   0  0  2  0  0  0  0  0  0  0  0  0
   -1.4714    0.2751   -0.0627 N   0  0  0  0  0  0  0  0  0  0  0  0
   -2.5867    0.4483   -1.0137 C   0  0  1  0  0  0  0  0  0  0  0  0
   -1.8664    0.3380   -2.3054 C   0  0  0  0  0  0  0  0  0  0  0  0
   -0.6317    0.7640   -2.1025 C   0  0  0  0  0  0  0  0  0  0  0  0
   -7.4150   -0.1454    0.6729 C   0  0  0  0  0  0  0  0  0  0  0  0
   -8.6995    0.0491    1.1500 C   0  0  0  0  0  0  0  0  0  0  0  0
   -9.1898    1.3107    1.4318 C   0  0  0  0  0  0  0  0  0  0  0  0
   -8.3600    2.3926    1.2249 C   0  0  0  0  0  0  0  0  0  0  0  0
   -7.0754    2.1886    0.7470 C   0  0  0  0  0  0  0  0  0  0  0  0
   -6.5875    0.9305    0.4664 C   0  0  0  0  0  0  0  0  0  0  0  0
   -5.2846    0.7516   -0.0160 C   0  0  0  0  0  0  0  0  0  0  0  0
   -4.7580   -0.4893   -0.3091 C   0  0  0  0  0  0  0  0  0  0  0  0
   -5.6200   -1.5715   -0.0906 C   0  0  0  0  0  0  0  0  0  0  0  0
   -5.1422   -2.8345   -0.3665 C   0  0  0  0  0  0  0  0  0  0  0  0
   -3.8706   -3.0468   -0.8392 C   0  0  0  0  0  0  0  0  0  0  0  0
   -3.0419   -1.9908   -1.0480 C   0  0  0  0  0  0  0  0  0  0  0  0
   -3.4933   -0.6866   -0.7782 C   0  0  0  0  0  0  0  0  0  0  0  0
   -6.9086   -1.3867    0.3872 C   0  0  0  0  0  0  0  0  0  0  0  0
    0.8769    0.7311   -0.1254 C   0  0  0  0  0  0  0  0  0  0  0  0
    0.9909    0.4424    1.2361 C   0  0  0  0  0  0  0  0  0  0  0  0
    2.6920   -0.0152    1.4560 S   0  0  0  0  0  0  0  0  0  0  0  0
    3.1344    0.2098   -0.2818 C   0  0  0  0  0  0  0  0  0  0  0  0
    2.0015    0.5955   -0.8509 C   0  0  0  0  0  0  0  0  0  0  0  0
    5.4936   -1.5514   -0.0177 C   0  0  0  0  0  0  0  0  0  0  0  0
    4.8214   -0.0830   -0.9038 P   0  0  0  0  0  0  0  0  0  0  0  0
    5.8315    1.3606   -0.4659 C   0  0  0  0  0  0  0  0  0  0  0  0
    6.7913    1.2907    0.5120 C   0  0  0  0  0  0  0  0  0  0  0  0
    7.5702    2.3878    0.8560 C   0  0  0  0  0  0  0  0  0  0  0  0
    7.3742    3.5659    0.2029 C   0  0  0  0  0  0  0  0  0  0  0  0
    6.4220    3.6553   -0.7750 C   0  0  0  0  0  0  0  0  0  0  0  0
    5.6362    2.5504   -1.1229 C   0  0  0  0  0  0  0  0  0  0  0  0
    6.0163   -2.6194   -0.7067 C   0  0  0  0  0  0  0  0  0  0  0  0
    6.5230   -3.7252   -0.0565 C   0  0  0  0  0  0  0  0  0  0  0  0
    6.5089   -3.7689    1.3161 C   0  0  0  0  0  0  0  0  0  0  0  0
    5.9910   -2.7125    2.0324 C   0  0  0  0  0  0  0  0  0  0  0  0
    5.4916   -1.6208    1.3592 C   0  0  0  0  0  0  0  0  0  0  0  0
   -0.6782    2.2204   -0.4846 H   0  0  0  0  0  0  0  0  0  0  0  0
   -1.1176   -0.6945   -0.2289 H   0  0  0  0  0  0  0  0  0  0  0  0
   -3.0184    1.4148   -0.8431 H   0  0  0  0  0  0  0  0  0  0  0  0
   -2.2770   -0.0184   -3.2168 H   0  0  0  0  0  0  0  0  0  0  0  0
    0.1801    0.8301   -2.8194 H   0  0  0  0  0  0  0  0  0  0  0  0
   -9.3371   -0.8035    1.3072 H   0  0  0  0  0  0  0  0  0  0  0  0
  -10.1949    1.4534    1.8043 H   0  0  0  0  0  0  0  0  0  0  0  0
   -8.7627    3.3705    1.4514 H   0  0  0  0  0  0  0  0  0  0  0  0
   -6.4216    3.0342    0.5834 H   0  0  0  0  0  0  0  0  0  0  0  0
   -4.6940    1.6323   -0.1522 H   0  0  0  0  0  0  0  0  0  0  0  0
   -5.8339   -3.6699   -0.1884 H   0  0  0  0  0  0  0  0  0  0  0  0
   -3.4989   -4.0484   -1.0553 H   0  0  0  0  0  0  0  0  0  0  0  0
   -2.0176   -2.0869   -1.4225 H   0  0  0  0  0  0  0  0  0  0  0  0
   -7.5606   -2.2367    0.5498 H   0  0  0  0  0  0  0  0  0  0  0  0
    0.2121    0.4822    2.0209 H   0  0  0  0  0  0  0  0  0  0  0  0
    1.9898    0.8114   -1.9514 H   0  0  0  0  0  0  0  0  0  0  0  0
    6.9859    0.3851    1.0574 H   0  0  0  0  0  0  0  0  0  0  0  0
    8.3215    2.3269    1.6239 H   0  0  0  0  0  0  0  0  0  0  0  0
    7.9820    4.4222    0.4712 H   0  0  0  0  0  0  0  0  0  0  0  0
    6.2661    4.5862   -1.2922 H   0  0  0  0  0  0  0  0  0  0  0  0
    4.8993    2.6750   -1.9013 H   0  0  0  0  0  0  0  0  0  0  0  0
    6.0157   -2.5596   -1.8030 H   0  0  0  0  0  0  0  0  0  0  0  0
    6.9326   -4.5631   -0.5816 H   0  0  0  0  0  0  0  0  0  0  0  0
    6.8959   -4.6169    1.8769 H   0  0  0  0  0  0  0  0  0  0  0  0
    5.9723   -2.7314    3.1259 H   0  0  0  0  0  0  0  0  0  0  0  0
    5.0778   -0.7768    1.9334 H   0  0  0  0  0  0  0  0  0  0  0  0
  1 38  1  1  0  0  0
  1 20  1  0  0  0  0
  1  2  1  0  0  0  0
  3 40  1  1  0  0  0
  3 18  1  0  0  0  0
  3  2  1  0  0  0  0
  4  5  2  0  0  0  0
  4  3  1  0  0  0  0
  5  1  1  0  0  0  0
  6  7  2  0  0  0  0
  7 43  1  0  0  0  0
  7  8  1  0  0  0  0
  8 44  1  0  0  0  0
  9  8  2  0  0  0  0
  9 45  1  0  0  0  0
 10  9  1  0  0  0  0
 11  6  1  0  0  0  0
 11 10  2  0  0  0  0
 12 11  1  0  0  0  0
 13 14  1  0  0  0  0
 13 12  2  0  0  0  0
 14 19  2  0  0  0  0
 15 48  1  0  0  0  0
 15 14  1  0  0  0  0
 16 15  2  0  0  0  0
 17 16  1  0  0  0  0
 17 18  2  0  0  0  0
 18 13  1  0  0  0  0
 19 51  1  0  0  0  0
 19  6  1  0  0  0  0
 20 21  2  0  0  0  0
 21 22  1  0  0  0  0
 21 52  1  0  0  0  0
 23 22  1  0  0  0  0
 24 23  2  0  0  0  0
 24 20  1  0  0  0  0
 25 37  1  0  0  0  0
 26 27  1  0  0  0  0
 26 23  1  0  0  0  0
 26 25  1  0  0  0  0
 27 28  1  0  0  0  0
 28 29  2  0  0  0  0
 28 54  1  0  0  0  0
 29 55  1  0  0  0  0
 30 56  1  0  0  0  0
 30 29  1  0  0  0  0
 31 30  2  0  0  0  0
 32 31  1  0  0  0  0
 32 27  2  0  0  0  0
 33 34  1  0  0  0  0
 33 25  2  0  0  0  0
 34 35  2  0  0  0  0
 35 61  1  0  0  0  0
 35 36  1  0  0  0  0
 36 62  1  0  0  0  0
 37 63  1  0  0  0  0
 37 36  2  0  0  0  0
 39  2  1  0  0  0  0
 41  4  1  0  0  0  0
 42  5  1  0  0  0  0
 46 10  1  0  0  0  0
 47 12  1  0  0  0  0
 49 16  1  0  0  0  0
 50 17  1  0  0  0  0
 53 24  1  0  0  0  0
 57 31  1  0  0  0  0
 58 32  1  0  0  0  0
 59 33  1  0  0  0  0
 60 34  1  0  0  0  0
M  END
$$$$
